Version 4
SHEET 1 980 680
WIRE 16 112 -288 112
WIRE 336 112 96 112
WIRE 512 112 416 112
WIRE 368 256 352 256
WIRE 384 256 368 256
WIRE 352 304 352 256
WIRE 512 336 512 112
WIRE 512 336 384 336
WIRE 624 336 512 336
WIRE 16 352 -112 352
WIRE 176 352 96 352
WIRE 320 352 176 352
WIRE -288 400 -288 112
WIRE -112 400 -112 352
WIRE 352 416 352 368
WIRE 368 416 352 416
WIRE 384 416 368 416
WIRE 176 432 176 352
WIRE -288 544 -288 480
WIRE -112 544 -112 480
WIRE 176 544 176 512
FLAG 176 544 0
FLAG 368 256 VDD
FLAG 368 416 VSS
FLAG -112 544 0
FLAG -288 544 0
SYMBOL res 112 96 R90
WINDOW 0 0 56 VBottom 2
WINDOW 3 32 56 VTop 2
SYMATTR InstName R1
SYMATTR Value 1k
SYMBOL res 432 96 R90
WINDOW 0 0 56 VBottom 2
WINDOW 3 32 56 VTop 2
SYMATTR InstName R2
SYMATTR Value 1k
SYMBOL res 112 336 R90
WINDOW 0 0 56 VBottom 2
WINDOW 3 32 56 VTop 2
SYMATTR InstName R3
SYMATTR Value 1k
SYMBOL res 192 528 R180
WINDOW 0 36 76 Left 2
WINDOW 3 36 40 Left 2
SYMATTR InstName R4
SYMATTR Value 1k
SYMBOL Opamps\\LT1001 352 272 R0
SYMATTR InstName U1
SYMBOL voltage -288 384 R0
WINDOW 123 0 0 Left 2
WINDOW 39 0 0 Left 2
SYMATTR InstName V1
SYMATTR Value SINE(0 1 1k)
SYMBOL voltage -112 384 R0
WINDOW 123 0 0 Left 2
WINDOW 39 0 0 Left 2
SYMATTR InstName V2
SYMATTR Value PWL(0 -1 0.5m -1 0.501m 1 1m 1 1.001m -1 1.5m -1 1.501m -1 1.501m 1 2ms 1 2.001m -1 2.5m -1)
TEXT -280 632 Left 2 !.tran 0 2.5m 0 0.1u
