*
*******************************************
*
*BZX84-C6V8
*
*NXP Semiconductors
*
*Voltage regulator diode
*
*
*
*
* 
*
*IR    = 2µA  @ VR = 4V
*IZSM  = 6A   @ tp = 100µs
*VZmax = 7,2V @ IZ = 5mA
*
*
*
*
* 
*
*
*Package pinning does not match Spice model pinning.
*Package: SOT23
*
*Package Pin 1: Anode
*Package Pin 2: not connected
*Package Pin 3: Cathode
*
*
*
*Simulator: PSPICE
*
*******************************************
*#
.MODEL BZX84-C6V8 D
+ IS=110.88E-18
+ N=.92657
+ RS=.85899
+ IKF=149.75
+ CJO=93.867E-12
+ M=.35256
+ VJ=.75339
+ ISR=522.33E-12
+ BV=6.9329
+ IBV=1.0062
+ TT=231.41E-9
*##
*
