**************************************
*      Model Generated by MODPEX     *
*Copyright(c) Symmetry Design Systems*
*         All Rights Reserved        *
*    UNPUBLISHED LICENSED SOFTWARE   *
*   Contains Proprietary Information *
*      Which is The Property of      *
*     SYMMETRY OR ITS LICENSORS      *
*Commercial Use or Resale Restricted *
*   by Symmetry License Agreement    *
**************************************
* Model generated on Aug 31, 11
* MODEL FORMAT: PSpice
.MODEL Qmjd32ct4g pnp
+IS=3.63152e-13 BF=272.001 NF=0.981175 VAF=8.02311
+IKF=0.255979 ISE=1.39581e-09 NE=2.64418 BR=26.8791
+NR=0.990094 VAR=38.8632 IKR=2.55979 ISC=2.54712e-13
+NC=1.09617 RB=210.108 IRB=1.31675e-05 RBM=1e-05
+RE=0.0329597 RC=0.164799 XTB=0.709265 XTI=4.43052
+EG=1.15135 CJE=2.01825e-10 VJE=0.360096 MJE=0.350357
+TF=3.62202e-09 XTF=276.075 VTF=0.608188 ITF=0.00777951
+CJC=1.18774e-10 VJC=0.694849 MJC=0.382715 XCJC=0.778775
+FC=0.9 CJS=0 VJS=0.75 MJS=0.5
+TR=2.02957e-06 PTF=0 KF=0 AF=1

