**************************************
*      Model Generated by MODPEX     *
*Copyright(c) Symmetry Design Systems*
*         All Rights Reserved        *
*    UNPUBLISHED LICENSED SOFTWARE   *
*   Contains Proprietary Information *
*      Which is The Property of      *
*     SYMMETRY OR ITS LICENSORS      *
*Commercial Use or Resale Restricted *
*   by Symmetry License Agreement    *
**************************************
* Model generated on Apr 14, 98
* MODEL FORMAT: PSpice
.MODEL Jmmbfj309lt1 njf
+VTO=-1.7 BETA=0.0055601 LAMBDA=0.02184 RD=0.1
+RS=0.1 IS=1.3336e-12 CGS=5.07189e-12 CGD=5.35152e-12
+PB=2.41896 FC=0.5 KF=9.99982e-21 AF=0.200092
