**************************************
*      Model Generated by MODPEX     *
*Copyright(c) Symmetry Design Systems*
*         All Rights Reserved        *
*    UNPUBLISHED LICENSED SOFTWARE   *
*   Contains Proprietary Information *
*      Which is The Property of      *
*     SYMMETRY OR ITS LICENSORS      *
*Commercial Use or Resale Restricted *
*   by Symmetry License Agreement    *
**************************************
* Model generated on Aug 23, 11
* MODEL FORMAT: PSpice
.MODEL Jmmbfj177lt1g pjf
+VTO=-1.2599 BETA=0.006919 LAMBDA=0.0272649 RD=58.8254
+RS=35.9102 IS=1.3336e-11 CGS=1.61697e-11 CGD=1.49992e-11
+PB=0.363701 FC=0.5 KF=1e-20 AF=0.2